tests/fixtures/psse_3bus.raw
@!IC,SBASE,REV,XFRRAT,NXFRAT,BASFRQ
0,   100.00, 33, 0, 1, 60.00     / hand-written OpenEMT import regression case (not a vendor file)
OPENEMT 3-BUS IMPORT TEST
SLACK + PV + PQ, ONE LINE, ONE 138/13.8 XFMR, LOAD, CAP + REACTOR SHUNTS
0 / END OF SYSTEM-WIDE DATA, BEGIN BUS DATA
     1,'BUS-1       ', 138.0000,3,   1,   1,   1,1.03000,   0.0000,1.10000,0.90000,1.10000,0.90000
     2,'BUS-2       ', 138.0000,2,   1,   1,   1,1.01000,  -2.0000,1.10000,0.90000,1.10000,0.90000
     3,'BUS-3       ',  13.8000,1,   1,   1,   1,1.00000,  -5.0000,1.10000,0.90000,1.10000,0.90000
0 / END OF BUS DATA, BEGIN LOAD DATA
     3,'1 ',   1,   1,   1,    80.000,    30.000,     0.000,     0.000,     0.000,     0.000,   1,    1,  0
0 / END OF LOAD DATA, BEGIN FIXED SHUNT DATA
     1,'1 ',   1,     0.000,   -15.000
     3,'1 ',   1,     0.000,    20.000
0 / END OF FIXED SHUNT DATA, BEGIN GENERATOR DATA
     1,'1 ',    60.000,    20.000,   150.000,  -100.000,1.03000,     0,   100.000, 5.00000E-3, 2.50000E-1, 0.00000E+0, 0.00000E+0,1.00000,1, 100.0,   150.000,     0.000
     2,'1 ',    40.000,    10.000,   120.000,  -100.000,1.01000,     0,   100.000, 5.00000E-3, 2.50000E-1, 0.00000E+0, 0.00000E+0,1.00000,1, 100.0,   100.000,     0.000
0 / END OF GENERATOR DATA, BEGIN BRANCH DATA
     1,     2,'1 ', 1.00000E-2, 1.00000E-1, 2.00000E-2,'                                        ',  400.00,  440.00,    1.00,    0.00,    0.00,    0.00,    0.00,    0.00,    0.00,    0.00,    0.00,    0.00,  0.00000,  0.00000,  0.00000,  0.00000,1,1,   0.00,   1,1.0000
0 / END OF BRANCH DATA, BEGIN TRANSFORMER DATA
     2,     3,     0,'1 ', 1, 1, 1, 0.00000E+0, 0.00000E+0,2,'                                        ',1,   1,1.0000,   0,1.0000,   0,1.0000,   0,1.0000,'            '
 5.00000E-3, 5.00000E-2,   100.00
1.00000, 138.000,   0.000,   200.00,   220.00,   240.00,     0.00,     0.00,     0.00,     0.00,     0.00,     0.00,     0.00,     0.00,     0.00, 0,      0, 1.10000, 0.90000, 1.10000, 0.90000,  33, 0, 0.00000, 0.00000,  0.000
1.00000,  13.800,   0.000
0 / END OF TRANSFORMER DATA, BEGIN AREA DATA
0 / END OF AREA DATA, BEGIN ZONE DATA
0 / END OF ZONE DATA, BEGIN OWNER DATA
0 / END OF OWNER DATA, BEGIN Q RECORD
Q
